%chk=HBT_ts_tdwb97xd_pvtz_optfreq.chk
%mem=58GB
%nprocshared=12
#p opt=(calcfc,ts) freq td wb97xd/cc-pvdz
scrf=(solvent=carbontetrachloride) int=ultrafine

Opt and Freq of TS excited HBT WB97XD pVDZ

0 1
 C                  3.46308400   -1.14287500   -0.00011600
 C                  2.13780400   -0.74289500   -0.00009400
 C                  1.77836800    0.62934900   -0.00006500
 C                  2.79224900    1.60189900   -0.00005200
 C                  4.10603100    1.19021200   -0.00007300
 C                  4.44748300   -0.16747500   -0.00010500
 H                  3.72499800   -2.19154100   -0.00013700
 H                  2.52847400    2.64986100   -0.00003100
 H                  4.89316900    1.93189500   -0.00006500
 H                  5.48816400   -0.45884000   -0.00012200
 N                  0.45181100    0.85041900   -0.00007800
 S                  0.70783400   -1.74129000   -0.00009800
 C                 -1.68853700   -0.24607500    0.00001800
 C                 -2.52473100   -1.36847700   -0.00003800
 C                 -2.32998100    1.08343100    0.00016800
 C                 -3.90682000   -1.22536700    0.00003100
 H                 -2.08947800   -2.35873100   -0.00015200
 C                 -3.73167600    1.18009100    0.00021100
 C                 -4.51496700    0.03958100    0.00015000
 H                 -4.52646300   -2.11146700   -0.00001300
 H                 -4.16413200    2.17055500    0.00032700
 H                 -5.59226100    0.11899500    0.00019700
 C                 -0.28199500   -0.28981600   -0.00006500
 O                 -1.59253500    2.14137400    0.00027200
 H                 -0.48808000    1.77649500    0.00013000

