%chk=config_8_19.chk 
%mem=58GB
%nprocshared=10
#p opt=addgic freq td wb97xd/cc-pvdz nosymm int=ultrafine scrf=(solvent=CarbonTetraChloride)

NM 2D-scan of HBT TD-WB97XD pVDZ in CTC
Relaxed.

0 1
C 1.505081710165122 -3.2460609447604996 -1.5680444523357335e-05 
C 1.002645924649204 -1.9385471728769188 -2.314026126761462e-05 
C 1.8206729651547275 -0.766284670473614 -2.8311252611109047e-05 
C 3.222128739680868 -0.9688281493359984 -3.188600740594549e-05 
C 3.7267643457259343 -2.2820533844695885 -2.4287301474857336e-05 
C 2.892162654918333 -3.416598989040697 -1.4477238165997263e-05 
H 0.8161001311384735 -4.104889748687953 -9.902079627893244e-06 
H 3.910124097204006 -0.10870555913050337 -3.915791558287197e-05 
H 4.815168325211798 -2.422713693596292 -2.5243087647442823e-05 
H 3.3263195925010396 -4.423845671666688 -7.25899052780581e-06 
N 1.067592147893308 0.40444829799961374 -3.361961798623554e-05 
S -0.690652564573312 -1.5480359775133958 -2.717221770394585e-05 
C -1.3025588934684331 1.0845896934668677 1.3809039150617906e-05 
C -2.649898118210123 0.699330535643915 2.9771066880243887e-05 
C -0.9088308736812365 2.4985730689828687 3.713981663988452e-05 
C -3.657667670699106 1.6923697290950288 3.4744532866109634e-05 
H -2.9314502990637896 -0.3628210888325929 2.878419820204178e-05 
C -1.9654709814571756 3.466947144638457 3.5120082718444246e-05 
C -3.316451253799271 3.0573614718477873 3.0759640381575744e-05 
H -4.711769288001139 1.3885382482172561 4.015026393198644e-05 
H -1.689806588596605 4.531341033904199 5.093299772323115e-05 
H -4.11196952579146 3.811779582057316 3.0235426519964232e-05 
C -0.267643911357377 0.12398330932912789 -2.3494814347567714e-05 
O 0.34016036245918047 2.7534857201676557 6.342366025771362e-05 
H 1.053526881315388 1.4246528704466086 1.5076634951846592e-05 
 
Q1(inactive)=((X(1)-(3.1409906396209912))*0.010127773667702948+(Y(1)-(-6.16889554258177))*0.035924032925655054+(Z(1)-(-4.0759925581999974e-05))*-5.461120677937275e-07)*SQRT(22033.832081280016)
P1(inactive)=((X(1)-(3.1409906396209912))*-0.20117595648452366+(Y(1)-(-6.16889554258177))*0.02016671419819949+(Z(1)-(-4.0759925581999974e-05))*7.558030551864427e-06)*SQRT(22033.832081280016)
Q2(inactive)=((X(2)-(1.8897995635036717))*0.050017871219463376+(Y(2)-(-3.855257168784271))*0.0741082314465249+(Z(2)-(-4.075992629738523e-05))*-3.2180458704214905e-07)*SQRT(22033.832081280016)
P2(inactive)=((X(2)-(1.8897995635036717))*-0.0012229902149186135+(Y(2)-(-3.855257168784271))*0.12276417912226918+(Z(2)-(-4.075992629738523e-05))*-1.9738682311406095e-06)*SQRT(22033.832081280016)
Q3(inactive)=((X(3)-(3.2386654884177597))*0.09276399215595578+(Y(3)-(-1.524925760681473))*-0.001652402543198441+(Z(3)-(-4.140130828584435e-05))*2.9408541314043805e-06)*SQRT(22033.832081280016)
P3(inactive)=((X(3)-(3.2386654884177597))*0.12779773483198847+(Y(3)-(-1.524925760681473))*0.052007429400431085+(Z(3)-(-4.140130828584435e-05))*-8.430902802587085e-06)*SQRT(22033.832081280016)
Q4(inactive)=((X(4)-(5.905832665296427))*-0.00885493919280048+(Y(4)-(-1.5676887148449108))*0.014598303466367054+(Z(4)-(-4.341955923137894e-05))*7.065718505593741e-07)*SQRT(22033.832081280016)
P4(inactive)=((X(4)-(5.905832665296427))*0.12435139840691399+(Y(4)-(-1.5676887148449108))*-0.17886645780953547+(Z(4)-(-4.341955923137894e-05))*-1.1423963871001945e-05)*SQRT(22033.832081280016)
Q5(inactive)=((X(5)-(7.129871696737969))*-0.003134363102126724+(Y(5)-(-3.881672658052449))*-0.027659368988253042+(Z(5)-(-4.2708605614456274e-05))*7.102917609180366e-08)*SQRT(22033.832081280016)
P5(inactive)=((X(5)-(7.129871696737969))*-0.058623175410532094+(Y(5)-(-3.881672658052449))*-0.28814274541002005+(Z(5)-(-4.2708605614456274e-05))*-2.157284628648343e-06)*SQRT(22033.832081280016)
Q6(inactive)=((X(6)-(5.77568208343393))*0.011078320633777968+(Y(6)-(-6.16889554258177))*0.011874076135724713+(Z(6)-(-4.07599259727577e-05))*-2.1045393523480975e-07)*SQRT(22033.832081280016)
P6(inactive)=((X(6)-(5.77568208343393))*-0.21036320022189312+(Y(6)-(-6.16889554258177))*-0.1950884495144344+(Z(6)-(-4.07599259727577e-05))*9.061643469596281e-06)*SQRT(22033.832081280016)
Q7(inactive)=((X(7)-(2.0852980714381983))*-0.006987367377828473+(Y(7)-(-7.938954847855149))*0.016151047327197715+(Z(7)-(-3.8574676278735845e-05))*-9.011228227260383e-08)*SQRT(1850.5206415557761)
P7(inactive)=((X(7)-(2.0852980714381983))*-0.10555829047322471+(Y(7)-(-7.938954847855149))*0.034087290979937415+(Z(7)-(-3.8574676278735845e-05))*3.891995731345029e-06)*SQRT(1850.5206415557761)
Q8(inactive)=((X(8)-(6.952546114226191))*0.009159515870096002+(Y(8)-(0.2073042392617701))*-0.0030285652029729106+(Z(8)-(-4.494152636174588e-05))*2.006522104306777e-07)*SQRT(1850.5206415557761)
P8(inactive)=((X(8)-(6.952546114226191))*0.0845217313018944+(Y(8)-(0.2073042392617701))*-0.08042739952026942+(Z(8)-(-4.494152636174588e-05))*-5.699744200627327e-06)*SQRT(1850.5206415557761)
Q9(inactive)=((X(9)-(9.19185523337649))*-0.0014043936678803906+(Y(9)-(-3.931533984590972))*-0.0012777536366259327+(Z(9)-(-4.3263012328424654e-05))*-1.3501247554559996e-07)*SQRT(1850.5206415557761)
P9(inactive)=((X(9)-(9.19185523337649))*-0.01796045100981258+(Y(9)-(-3.931533984590972))*-0.12634239597372499+(Z(9)-(-4.3263012328424654e-05))*-8.558052610569267e-07)*SQRT(1850.5206415557761)
Q10(inactive)=((X(10)-(6.7926131849199125))*-0.0010427702807934663+(Y(10)-(-7.961751018078588))*0.0015153099691248813+(Z(10)-(-3.949781930922656e-05))*2.5143366948078134e-08)*SQRT(1850.5206415557761)
P10(inactive)=((X(10)-(6.7926131849199125))*-0.09899840963120575+(Y(10)-(-7.961751018078588))*-0.07798131784504529+(Z(10)-(-3.949781930922656e-05))*5.038665636401393e-06)*SQRT(1850.5206415557761)
Q11(inactive)=((X(11)-(1.7460630462016957))*-0.11942109143015645+(Y(11)-(0.5475071488772336))*0.0819406041725527+(Z(11)-(-4.220851472885067e-05))*3.2684161082536808e-06)*SQRT(25711.781761478174)
P11(inactive)=((X(11)-(1.7460630462016957))*0.20866417026908954+(Y(11)-(0.5475071488772336))*0.15055969274899417+(Z(11)-(-4.220851472885067e-05))*-1.5838844316402017e-05)*SQRT(25711.781761478174)
Q12(inactive)=((X(12)-(-1.3801448147693176))*0.019180273787736894+(Y(12)-(-3.2912519705139807))*0.05319077323644632+(Z(12)-(-3.892935541914765e-05))*4.079076663320287e-07)*SQRT(58705.60511098567)
P12(inactive)=((X(12)-(-1.3801448147693176))*0.08085670249254782+(Y(12)-(-3.2912519705139807))*0.3981275028199268+(Z(12)-(-3.892935541914765e-05))*-1.3714151521321158e-05)*SQRT(58705.60511098567)
Q13(inactive)=((X(13)-(-2.599253334695481))*-0.07648893270930868+(Y(13)-(1.9408972228256776))*0.04825065260549054+(Z(13)-(7.6119279460787676e-06))*2.2375158301469096e-06)*SQRT(22033.832081280016)
P13(inactive)=((X(13)-(-2.599253334695481))*0.0999119870803156+(Y(13)-(1.9408972228256776))*0.0689421084542287+(Z(13)-(7.6119279460787676e-06))*1.2267655834927088e-05)*SQRT(22033.832081280016)
Q14(inactive)=((X(14)-(-5.227274555316095))*0.07629851804733936+(Y(14)-(1.5584704640752136))*-0.008182297195679525+(Z(14)-(3.86489076206816e-06))*-1.587523681312322e-06)*SQRT(22033.832081280016)
P14(inactive)=((X(14)-(-5.227274555316095))*0.14129450780747635+(Y(14)-(1.5584704640752136))*-0.15911527098114703+(Z(14)-(3.86489076206816e-06))*3.549568210253567e-05)*SQRT(22033.832081280016)
Q15(inactive)=((X(15)-(-1.6699035767110333))*0.13509770169439692+(Y(15)-(4.579411212071914))*0.02882101663667047+(Z(15)-(6.111287383519524e-05))*2.1512722594145984e-06)*SQRT(22033.832081280016)
P15(inactive)=((X(15)-(-1.6699035767110333))*-0.04435626756111079+(Y(15)-(4.579411212071914))*0.09332993769500159+(Z(15)-(6.111287383519524e-05))*5.92493763989549e-06)*SQRT(22033.832081280016)
Q16(inactive)=((X(16)-(-6.892422072103363))*-0.026781186959490104+(Y(16)-(3.6129485611124093))*0.06974627012372979+(Z(16)-(4.8472254284230885e-05))*1.6325787375961758e-06)*SQRT(22033.832081280016)
P16(inactive)=((X(16)-(-6.892422072103363))*-0.010768283954127258+(Y(16)-(3.6129485611124093))*-0.28623607142114205+(Z(16)-(4.8472254284230885e-05))*1.1446881634704768e-05)*SQRT(22033.832081280016)
Q17(inactive)=((X(17)-(-5.978027182432361))*0.00672410769980954+(Y(17)-(-0.36261842789939447))*0.0013277284088542786+(Z(17)-(-3.589444695935016e-05))*-1.1725715988176431e-06)*SQRT(1850.5206415557761)
P17(inactive)=((X(17)-(-5.978027182432361))*0.08510906123254292+(Y(17)-(-0.36261842789939447))*-0.06328122529902276+(Z(17)-(-3.589444695935016e-05))*1.776118910740734e-05)*SQRT(1850.5206415557761)
Q18(inactive)=((X(18)-(-3.418584231816887))*-0.032845630237875054+(Y(18)-(6.595882873272557))*0.003081624238861422+(Z(18)-(0.00010298198441246345))*-1.0328166920325367e-06)*SQRT(22033.832081280016)
P18(inactive)=((X(18)-(-3.418584231816887))*-0.1964725876561779+(Y(18)-(6.595882873272557))*-0.030171697117134237+(Z(18)-(0.00010298198441246345))*-2.4610671003768533e-05)*SQRT(22033.832081280016)
Q19(inactive)=((X(19)-(-6.007370723581894))*-0.050569385480863295+(Y(19)-(6.124519665091716))*-0.010566734556938202+(Z(19)-(9.887887794077045e-05))*-2.2821322248073212e-08)*SQRT(22033.832081280016)
P19(inactive)=((X(19)-(-6.007370723581894))*-0.17070388193577435+(Y(19)-(6.124519665091716))*-0.23312864949405476+(Z(19)-(9.887887794077045e-05))*-2.7493753755239664e-05)*SQRT(22033.832081280016)
Q20(inactive)=((X(20)-(-8.922842746274824))*-0.004361729355753243+(Y(20)-(3.2527585311895493))*0.0028420562302808017+(Z(20)-(4.426530897800452e-05))*3.9920295286400573e-07)*SQRT(1850.5206415557761)
P20(inactive)=((X(20)-(-8.922842746274824))*0.00409002447869246+(Y(20)-(3.2527585311895493))*-0.12321101344070828+(Z(20)-(4.426530897800452e-05))*6.1441160815142654e-06)*SQRT(1850.5206415557761)
Q21(inactive)=((X(21)-(-2.6551417967192688))*-0.007271737877035555+(Y(21)-(8.51002656131101))*0.0007690132099571929+(Z(21)-(0.00014519064614998853))*8.122331437369194e-07)*SQRT(1850.5206415557761)
P21(inactive)=((X(21)-(-2.6551417967192688))*-0.10456210174703094+(Y(21)-(8.51002656131101))*0.010286980958420502+(Z(21)-(0.00014519064614998853))*-9.643557895552593e-06)*SQRT(1850.5206415557761)
Q22(inactive)=((X(22)-(-7.3476462819420725))*-0.015063837173974777+(Y(22)-(7.6889847166068765))*-0.0032916121458273695+(Z(22)-(0.0001351435223512203))*-1.0292454089646042e-07)*SQRT(1850.5206415557761)
P22(inactive)=((X(22)-(-7.3476462819420725))*-0.08131248431692405+(Y(22)-(7.6889847166068765))*-0.09468482442957993+(Z(22)-(0.0001351435223512203))*-1.524370433133844e-05)*SQRT(1850.5206415557761)
Q23(inactive)=((X(23)-(-0.7625123568605932))*-0.07860997950183041+(Y(23)-(-0.007436614550667464))*-0.05146740967207962+(Z(23)-(-3.1423940717548544e-05))*-8.370918882436534e-07)*SQRT(22033.832081280016)
P23(inactive)=((X(23)-(-0.7625123568605932))*0.1803725768276885+(Y(23)-(-0.007436614550667464))*0.16777920388610185+(Z(23)-(-3.1423940717548544e-05))*-8.678248684166781e-06)*SQRT(22033.832081280016)
Q24(inactive)=((X(24)-(0.7363409025643071))*-0.06304757812792275+(Y(24)-(5.012872755217027))*-0.09028585651916289+(Z(24)-(7.44100921484902e-05))*-1.4429375503388117e-06)*SQRT(29369.105204234507)
P24(inactive)=((X(24)-(0.7363409025643071))*-0.06712655494285268+(Y(24)-(5.012872755217027))*0.15657198669703995+(Z(24)-(7.44100921484902e-05))*3.5530267409960996e-05)*SQRT(29369.105204234507)
Q25(inactive)=((X(25)-(1.7228096554441876))*0.27002476183334856+(Y(25)-(3.0487140686288736))*-0.9051910009294007+(Z(25)-(2.168692148290616e-05))*-2.6547165110180135e-05)*SQRT(1850.5206415557761)
P25(inactive)=((X(25)-(1.7228096554441876))*0.027868869002920557+(Y(25)-(3.0487140686288736))*0.01257988066615124+(Z(25)-(2.168692148290616e-05))*3.743756945048752e-06)*SQRT(1850.5206415557761)
Qtot(freeze)=Q1+Q2+Q3+Q4+Q5+Q6+Q7+Q8+Q9+Q10+Q11+Q12+Q13+Q14+Q15+Q16+Q17+Q18+Q19+Q20+Q21+Q22+Q23+Q24+Q25
Ptot(freeze)=P1+P2+P3+P4+P5+P6+P7+P8+P9+P10+P11+P12+P13+P14+P15+P16+P17+P18+P19+P20+P21+P22+P23+P24+P25
 
 
